Circuit: * C:\Users\dlago\git\F3A Acquisition System Firmware\Spice simulation\HC06_npn_pnp.asc

Warning: Multiple definitions of model "bc817-16" Type: BJT
Warning: Multiple definitions of model "bc848b" Type: BJT
Warning: Multiple definitions of model "bc807-16" Type: BJT
Warning: Multiple definitions of model "bc858b" Type: BJT
Warning: Multiple definitions of model "bc856b" Type: BJT
Warning: Multiple definitions of model "bc556b" Type: BJT
Warning: Multiple definitions of model "bc846b" Type: BJT
Warning: Multiple definitions of model "bc546b" Type: BJT
Warning: Multiple definitions of model "bc807-40" Type: BJT
Warning: Multiple definitions of model "bc807-25" Type: BJT
Warning: Multiple definitions of model "bc857c" Type: BJT
Warning: Multiple definitions of model "bc857b" Type: BJT
Warning: Multiple definitions of model "bc857a" Type: BJT
Warning: Multiple definitions of model "bc557c" Type: BJT
Warning: Multiple definitions of model "bc557b" Type: BJT
Warning: Multiple definitions of model "bc817-40" Type: BJT
Warning: Multiple definitions of model "bc817-25" Type: BJT
Warning: Multiple definitions of model "bc847c" Type: BJT
Warning: Multiple definitions of model "bc847b" Type: BJT
Warning: Multiple definitions of model "bc847a" Type: BJT
Warning: Multiple definitions of model "bc547c" Type: BJT
Warning: Multiple definitions of model "bc547b" Type: BJT
Warning: Multiple definitions of model "bcw68g" Type: BJT
Warning: Multiple definitions of model "bcw68f" Type: BJT
Warning: Multiple definitions of model "bcw60d" Type: BJT
Warning: Multiple definitions of model "bcw60c" Type: BJT
Warning: Multiple definitions of model "bcw60b" Type: BJT
Warning: Multiple definitions of model "bcw60a" Type: BJT
Direct Newton iteration for .op point succeeded.

Date: Sun Sep 05 00:35:34 2021
Total elapsed time: 0.070 seconds.

tnom = 27
temp = 27
method = modified trap
totiter = 2106
traniter = 2090
tranpoints = 1046
accept = 1046
rejected = 0
matrix size = 9
fillins = 0
solver = Normal
Matrix Compiler1: 332 bytes object code size  0.0/0.0/[0.0]
Matrix Compiler2: off  [0.0]/0.1/0.1

